*version 9.1 1329163
u 710
U? 31
DSTM? 3
? 4
@libraries
@analysis
.TRAN 1 0 0 0
+0 0ns
+1 20us
@targets
@attributes
@translators
a 0 u 13 0 0 0 hln 100 PCBOARDS=PCB
a 0 u 13 0 0 0 hln 100 PSPICE=PSPICE
a 0 u 13 0 0 0 hln 100 XILINX=XILINX
@setup
unconnectedPins 0
connectViaLabel 0
connectViaLocalLabels 0
NoStim4ExtIFPortsWarnings 1
AutoGenStim4ExtIFPorts 1
@index
pageloc 1 0 11347 
@status
n 2911 124:03:20:00:35:35;1713553535 e 
c 124:03:05:10:17:11;1712292431
*page 1 0 970 720 iA
@ports
port 691 lo 220 160 h
@parts
part 368 7400 290 350 h
a 0 sp 11 0 40 50 hln 100 PART=7400
a 0 s 0:13 0 0 0 hln 100 PKGTYPE=DIP14
a 0 s 0:13 0 0 0 hln 100 GATE=A
a 0 a 0:13 0 0 0 hln 100 PKGREF=U22
a 0 ap 9 0 40 0 hln 100 REFDES=U22A
part 370 7486 280 430 h
a 0 sp 11 0 40 50 hln 100 PART=7486
a 0 s 0:13 0 0 0 hln 100 PKGTYPE=DIP14
a 0 s 0:13 0 0 0 hln 100 GATE=A
a 0 a 0:13 0 0 0 hln 100 PKGREF=U24
a 0 ap 9 0 40 0 hln 100 REFDES=U24A
part 415 7400 300 520 h
a 0 sp 11 0 40 50 hln 100 PART=7400
a 0 s 0:13 0 0 0 hln 100 PKGTYPE=DIP14
a 0 s 0:13 0 0 0 hln 100 GATE=A
a 0 a 0:13 0 0 0 hln 100 PKGREF=U27
a 0 ap 9 0 40 0 hln 100 REFDES=U27A
part 417 7486 290 600 h
a 0 sp 11 0 40 50 hln 100 PART=7486
a 0 s 0:13 0 0 0 hln 100 PKGTYPE=DIP14
a 0 s 0:13 0 0 0 hln 100 GATE=A
a 0 a 0:13 0 0 0 hln 100 PKGREF=U29
a 0 ap 9 0 40 0 hln 100 REFDES=U29A
part 214 7400 300 40 h
a 0 sp 11 0 40 50 hln 100 PART=7400
a 0 s 0:13 0 0 0 hln 100 PKGTYPE=DIP14
a 0 s 0:13 0 0 0 hln 100 GATE=A
a 0 a 0:13 0 0 0 hln 100 PKGREF=U13
a 0 ap 9 0 40 0 hln 100 REFDES=U13A
part 215 7400 390 70 h
a 0 sp 11 0 40 50 hln 100 PART=7400
a 0 s 0:13 0 0 0 hln 100 PKGTYPE=DIP14
a 0 s 0:13 0 0 0 hln 100 GATE=A
a 0 a 0:13 0 0 0 hln 100 PKGREF=U14
a 0 ap 9 0 40 0 hln 100 REFDES=U14A
part 212 7486 290 120 h
a 0 sp 11 0 40 50 hln 100 PART=7486
a 0 s 0:13 0 0 0 hln 100 PKGTYPE=DIP14
a 0 s 0:13 0 0 0 hln 100 GATE=A
a 0 a 0:13 0 0 0 hln 100 PKGREF=U11
a 0 ap 9 0 40 0 hln 100 REFDES=U11A
part 317 7400 300 180 h
a 0 sp 11 0 40 50 hln 100 PART=7400
a 0 s 0:13 0 0 0 hln 100 PKGTYPE=DIP14
a 0 s 0:13 0 0 0 hln 100 GATE=A
a 0 a 0:13 0 0 0 hln 100 PKGREF=U17
a 0 ap 9 0 40 0 hln 100 REFDES=U17A
part 321 7486 290 260 h
a 0 sp 11 0 40 50 hln 100 PART=7486
a 0 s 0:13 0 0 0 hln 100 PKGTYPE=DIP14
a 0 s 0:13 0 0 0 hln 100 GATE=A
a 0 a 0:13 0 0 0 hln 100 PKGREF=U19
a 0 ap 9 0 40 0 hln 100 REFDES=U19A
part 213 7400 460 50 h
a 0 sp 11 0 40 50 hln 100 PART=7400
a 0 s 0:13 0 0 0 hln 100 PKGTYPE=DIP14
a 0 s 0:13 0 0 0 hln 100 GATE=A
a 0 a 0:13 0 0 0 hln 100 PKGREF=U12
a 0 ap 9 0 40 0 hln 100 REFDES=U12A
part 318 7400 390 210 h
a 0 sp 11 0 40 50 hln 100 PART=7400
a 0 s 0:13 0 0 0 hln 100 PKGTYPE=DIP14
a 0 s 0:13 0 0 0 hln 100 GATE=A
a 0 a 0:13 0 0 0 hln 100 PKGREF=U18
a 0 ap 9 0 40 0 hln 100 REFDES=U18A
part 316 7400 460 190 h
a 0 sp 11 0 40 50 hln 100 PART=7400
a 0 s 0:13 0 0 0 hln 100 PKGTYPE=DIP14
a 0 s 0:13 0 0 0 hln 100 GATE=A
a 0 a 0:13 0 0 0 hln 100 PKGREF=U16
a 0 ap 9 0 40 0 hln 100 REFDES=U16A
part 369 7400 380 380 h
a 0 sp 11 0 40 50 hln 100 PART=7400
a 0 s 0:13 0 0 0 hln 100 PKGTYPE=DIP14
a 0 s 0:13 0 0 0 hln 100 GATE=A
a 0 a 0:13 0 0 0 hln 100 PKGREF=U23
a 0 ap 9 0 40 0 hln 100 REFDES=U23A
part 216 7486 450 130 h
a 0 sp 11 0 40 50 hln 100 PART=7486
a 0 s 0:13 0 0 0 hln 100 PKGTYPE=DIP14
a 0 s 0:13 0 0 0 hln 100 GATE=A
a 0 a 0:13 0 0 0 hln 100 PKGREF=U15
a 0 ap 9 0 40 0 hln 100 REFDES=U15A
part 322 7486 450 270 h
a 0 sp 11 0 40 50 hln 100 PART=7486
a 0 s 0:13 0 0 0 hln 100 PKGTYPE=DIP14
a 0 s 0:13 0 0 0 hln 100 GATE=A
a 0 a 0:13 0 0 0 hln 100 PKGREF=U20
a 0 ap 9 0 40 0 hln 100 REFDES=U20A
part 371 7486 440 440 h
a 0 sp 11 0 40 50 hln 100 PART=7486
a 0 s 0:13 0 0 0 hln 100 PKGTYPE=DIP14
a 0 s 0:13 0 0 0 hln 100 GATE=A
a 0 a 0:13 0 0 0 hln 100 PKGREF=U25
a 0 ap 9 0 40 0 hln 100 REFDES=U25A
part 367 7400 450 360 h
a 0 sp 11 0 40 50 hln 100 PART=7400
a 0 s 0:13 0 0 0 hln 100 PKGTYPE=DIP14
a 0 s 0:13 0 0 0 hln 100 GATE=A
a 0 a 0:13 0 0 0 hln 100 PKGREF=U21
a 0 ap 9 0 40 0 hln 100 REFDES=U21A
part 418 7486 450 610 h
a 0 sp 11 0 40 50 hln 100 PART=7486
a 0 s 0:13 0 0 0 hln 100 PKGTYPE=DIP14
a 0 s 0:13 0 0 0 hln 100 GATE=A
a 0 a 0:13 0 0 0 hln 100 PKGREF=U30
a 0 ap 9 0 40 0 hln 100 REFDES=U30A
part 416 7400 390 550 h
a 0 sp 11 0 40 50 hln 100 PART=7400
a 0 s 0:13 0 0 0 hln 100 PKGTYPE=DIP14
a 0 s 0:13 0 0 0 hln 100 GATE=A
a 0 a 0:13 0 0 0 hln 100 PKGREF=U28
a 0 ap 9 0 40 0 hln 100 REFDES=U28A
part 414 7400 460 530 h
a 0 sp 11 0 40 50 hln 100 PART=7400
a 0 s 0:13 0 0 0 hln 100 PKGTYPE=DIP14
a 0 s 0:13 0 0 0 hln 100 GATE=A
a 0 a 0:13 0 0 0 hln 100 PKGREF=U26
a 0 ap 9 0 40 0 hln 100 REFDES=U26A
part 689 stim4 60 700 h
a 0 a 0:13 0 0 0 hln 100 PKGREF=DSTM1
a 0 ap 9 0 1 -2 hln 100 REFDES=DSTM1
a 0 u 0 0 0 70 hln 100 TIMESTEP=1us
a 0 u 0 0 0 80 hln 100 COMMAND1=0s 0001
a 0 u 0 0 0 90 hln 100 COMMAND2=5us 0011
a 0 u 0 0 0 100 hln 100 COMMAND3=10us 0110
a 0 u 0 0 0 110 hln 100 COMMAND4=15us 1010
part 690 stim4 140 700 h
a 0 a 0:13 0 0 0 hln 100 PKGREF=DSTM2
a 0 ap 9 0 1 -2 hln 100 REFDES=DSTM2
a 0 u 0 0 0 70 hln 100 TIMESTEP=1us
a 0 u 0 0 0 80 hln 100 COMMAND1=0s 0001
a 0 u 0 0 0 90 hln 100 COMMAND2=5us 0111
a 0 u 0 0 0 100 hln 100 COMMAND3=10us 0001
a 0 u 0 0 0 110 hln 100 COMMAND4=15us 0101
part 1 titleblk 970 720 h
a 1 s 13 0 350 10 hcn 100 PAGESIZE=A
a 1 s 13 0 180 60 hcn 100 PAGETITLE=
a 1 s 13 0 300 95 hrn 100 PAGENO=1
a 1 s 13 0 340 95 hrn 100 PAGECOUNT=1
part 692 nodeMarker 690 40 h
a 0 s 0 0 0 0 hln 100 PROBEVAR=
a 0 a 0 0 4 22 hlb 100 LABEL=1
part 694 nodeMarker 100 620 h
a 0 s 0 0 0 0 hln 100 PROBEVAR=
a 0 a 0 0 4 22 hlb 100 LABEL=2
part 696 nodeMarker 40 620 h
a 0 s 0 0 0 0 hln 100 PROBEVAR=
a 0 a 0 0 4 22 hlb 100 LABEL=3
@conn
w 507
s 210 320 210 470 512
s 370 460 370 400 412
s 440 460 370 460 390
s 370 470 370 460 388
s 210 470 370 470 384
s 370 400 380 400 386
s 380 400 390 400 382
s 540 320 210 320 510
s 540 200 540 320 508
s 530 200 540 200 506
w 496
s 210 300 380 300 504
s 390 230 400 230 319
s 380 230 390 230 300
s 380 300 380 290 358
s 380 290 380 230 555
s 450 290 380 290 296
s 210 170 210 300 502
s 550 170 210 170 500
s 550 60 550 170 498
s 530 60 550 60 497
s 520 60 530 60 495
w 270
s 450 130 460 130 273
s 360 130 450 130 271
s 390 70 400 70 219
s 360 70 390 70 235
s 360 130 360 70 231
w 248
s 370 50 460 50 247
w 246
s 460 70 460 80 245
w 307
s 450 270 460 270 323
s 360 270 450 270 314
s 390 210 400 210 320
s 360 210 390 210 310
s 360 270 360 210 306
w 277
s 370 190 460 190 276
w 275
s 460 210 460 220 274
w 454
s 460 550 460 560 453
w 452
s 370 530 460 530 451
w 420
s 360 610 360 550 427
s 360 550 390 550 425
s 390 550 400 550 421
s 360 610 450 610 423
s 450 610 460 610 419
w 407
s 450 380 450 390 406
w 405
s 360 360 450 360 404
w 373
s 350 440 350 380 380
s 350 380 380 380 378
s 380 380 390 380 374
s 350 440 440 440 376
s 440 440 450 440 372
w 675
s 510 370 520 370 674
s 520 370 540 370 676
s 540 370 540 490 677
s 540 490 220 490 679
s 380 630 380 570 459
s 450 630 380 630 437
s 380 640 380 630 435
s 220 640 380 640 431
s 380 570 390 570 433
s 390 570 400 570 429
s 220 490 220 640 681
w 218
s 220 160 380 160 241
s 380 90 390 90 239
s 380 160 380 150 339
s 380 150 380 90 569
s 450 150 380 150 223
s 390 90 400 90 217
w 642
s 510 140 520 140 641
s 520 140 660 140 643
s 660 140 660 70 644
s 660 70 690 70 646
w 650
s 510 280 520 280 649
s 520 280 670 280 651
s 670 280 670 180 652
s 670 180 690 180 654
w 666
s 510 620 520 620 665
s 520 620 570 620 667
s 570 620 570 470 668
s 570 470 690 470 670
w 673
s 510 450 670 450 516
s 500 450 510 450 514
s 670 450 670 320 660
s 670 320 690 320 662
w 684
s 530 540 690 540 683
s 690 540 690 550 686
w 440
s 250 620 290 620 443
s 250 540 250 620 441
s 300 540 250 540 439
s 250 540 100 540 627
w 393
s 240 450 280 450 396
s 240 370 240 450 394
s 290 370 240 370 392
s 240 370 100 370 630
w 287
s 300 200 250 200 361
s 250 200 250 280 288
s 250 280 290 280 286
s 250 200 100 200 633
w 258
s 300 60 250 60 343
s 250 60 250 140 259
s 250 140 290 140 257
s 250 60 100 60 636
w 250
s 300 40 270 40 347
s 270 40 270 120 251
s 270 120 290 120 249
s 270 40 40 40 615
w 279
s 300 180 270 180 365
s 270 180 270 260 280
s 270 260 290 260 278
s 270 180 40 180 618
w 399
s 260 430 280 430 402
s 260 350 260 430 400
s 290 350 260 350 398
s 260 350 40 350 621
w 446
s 270 600 290 600 449
s 270 520 270 600 447
s 300 520 270 520 445
s 270 520 40 520 624
w 699
s 130 700 140 700 698
s 140 700 160 700 700
s 160 700 160 640 701
s 160 640 100 640 703
w 707
s 60 700 60 640 706
s 60 640 40 640 708
b 640
s 690 20 690 40 639
s 690 70 690 180 648
s 690 180 690 320 656
s 690 320 690 470 664
s 690 470 690 540 672
s 690 540 690 550 685
s 690 550 690 600 688
s 690 40 690 70 693
b 612
a 0 sr 0 0 0 0 hln 100 LABEL=A3
s 40 520 40 620 626
a 0 sr 3 0 42 570 hln 100 LABEL=A3
s 40 20 40 40 611
s 40 40 40 180 617
s 40 180 40 350 620
s 40 350 40 520 623
s 40 620 40 640 697
b 614
a 0 sr 0 0 0 0 hln 100 LABEL=b3
s 100 540 100 620 629
a 0 sr 3 0 102 580 hln 100 LABEL=b3
s 100 20 100 60 613
s 100 370 100 540 632
s 100 200 100 370 635
s 100 60 100 200 638
s 100 620 100 640 695
s 100 640 100 650 705
@junction
j 380 630
+ w 675
+ w 675
j 510 450
+ p 371 Y
+ w 673
j 370 460
+ w 507
+ w 507
j 440 460
+ p 371 B
+ w 507
j 380 400
+ p 369 B
+ w 507
j 530 200
+ p 316 Y
+ w 507
j 390 230
+ p 318 B
+ w 496
j 450 290
+ p 322 B
+ w 496
j 380 290
+ w 496
+ w 496
j 530 60
+ p 213 Y
+ w 496
j 450 130
+ p 216 A
+ w 270
j 360 130
+ p 212 Y
+ w 270
j 390 70
+ p 215 A
+ w 270
j 390 90
+ p 215 B
+ w 218
j 450 150
+ p 216 B
+ w 218
j 380 150
+ w 218
+ w 218
j 300 60
+ p 214 B
+ w 258
j 250 60
+ w 258
+ w 258
j 290 140
+ p 212 B
+ w 258
j 300 40
+ p 214 A
+ w 250
j 270 40
+ w 250
+ w 250
j 290 120
+ p 212 A
+ w 250
j 370 50
+ p 214 Y
+ w 248
j 460 50
+ p 213 A
+ w 248
j 460 80
+ p 215 Y
+ w 246
j 460 70
+ p 213 B
+ w 246
j 450 270
+ p 322 A
+ w 307
j 360 270
+ p 321 Y
+ w 307
j 390 210
+ p 318 A
+ w 307
j 300 200
+ p 317 B
+ w 287
j 250 200
+ w 287
+ w 287
j 290 280
+ p 321 B
+ w 287
j 300 180
+ p 317 A
+ w 279
j 270 180
+ w 279
+ w 279
j 290 260
+ p 321 A
+ w 279
j 370 190
+ p 317 Y
+ w 277
j 460 190
+ p 316 A
+ w 277
j 460 220
+ p 318 Y
+ w 275
j 460 210
+ p 316 B
+ w 275
j 460 550
+ p 414 B
+ w 454
j 460 560
+ p 416 Y
+ w 454
j 460 530
+ p 414 A
+ w 452
j 370 530
+ p 415 Y
+ w 452
j 290 600
+ p 417 A
+ w 446
j 300 520
+ p 415 A
+ w 446
j 270 520
+ w 446
+ w 446
j 290 620
+ p 417 B
+ w 440
j 300 540
+ p 415 B
+ w 440
j 250 540
+ w 440
+ w 440
j 360 610
+ p 417 Y
+ w 420
j 390 550
+ p 416 A
+ w 420
j 450 610
+ p 418 A
+ w 420
j 450 380
+ p 367 B
+ w 407
j 450 390
+ p 369 Y
+ w 407
j 450 360
+ p 367 A
+ w 405
j 360 360
+ p 368 Y
+ w 405
j 280 430
+ p 370 A
+ w 399
j 290 350
+ p 368 A
+ w 399
j 260 350
+ w 399
+ w 399
j 280 450
+ p 370 B
+ w 393
j 290 370
+ p 368 B
+ w 393
j 240 370
+ w 393
+ w 393
j 350 440
+ p 370 Y
+ w 373
j 380 380
+ p 369 A
+ w 373
j 440 440
+ p 371 A
+ w 373
j 40 40
+ w 250
+ b 612
j 40 180
+ w 279
+ b 612
j 40 350
+ w 399
+ b 612
j 40 520
+ w 446
+ b 612
j 100 540
+ w 440
+ b 614
j 100 370
+ w 393
+ b 614
j 100 200
+ w 287
+ b 614
j 100 60
+ w 258
+ b 614
j 520 140
+ p 216 Y
+ w 642
j 690 70
+ w 642
+ b 640
j 520 280
+ p 322 Y
+ w 650
j 690 180
+ w 650
+ b 640
j 690 320
+ w 673
+ b 640
j 520 620
+ p 418 Y
+ w 666
j 690 470
+ w 666
+ b 640
j 520 370
+ p 367 Y
+ w 675
j 450 630
+ p 418 B
+ w 675
j 390 570
+ p 416 B
+ w 675
j 530 540
+ p 414 Y
+ w 684
j 690 540
+ w 684
+ b 640
j 690 550
+ w 684
+ b 640
j 220 160
+ s 691
+ w 218
j 690 40
+ p 692 pin1
+ b 640
j 100 620
+ p 694 pin1
+ b 614
j 40 620
+ p 696 pin1
+ b 612
j 100 640
+ w 699
+ b 614
j 60 700
+ p 689 pin[0-3]
+ w 707
j 40 640
+ w 707
+ b 612
j 140 700
+ p 690 pin[0-3]
+ w 699
@attributes
a 0 s 0:13 0 0 0 hln 100 PAGETITLE=
a 0 s 0:13 0 0 0 hln 100 PAGENO=1
a 0 s 0:13 0 0 0 hln 100 PAGESIZE=A
a 0 s 0:13 0 0 0 hln 100 PAGECOUNT=1
@graphics
